teusecases/usecase_1/model/uc1_simulation_test_model.glm
#include "water_and_setpoint_schedule_v5.glm"
#include "commercial_schedules.glm"
#include "appliance_schedules.glm"
#include "daily_elasticity_schedules.glm"
#set relax_naming_rules=1
#set minimum_timestep=60
#set profiler=1
module residential {
  implicit_enduses NONE;
};
module tape;
module climate;
module powerflow {
  solver_method NR;
  NR_iteration_limit 50;
};
module market;
class player {
  double value;
};
class auction {
  double my_avg;
  double my_std;
};
clock {
  timezone PST+8PDT;
  stoptime '2009-06-01 20:00:00';
  starttime '2009-06-01 09:00:00';
};
object auction {
  my_std 0.033058;
  my_avg 0.099172;
  unit kW;
  special_mode NONE;
  period 900;
  name Market_1;
};
object triplex_node {
  nominal_voltage 120;
  phases BS;
  name R1-12-47-3_load_17_tn_B_1;
};
object triplex_meter {
  bill_day 1;
  monthly_fee 25.00;
  bill_mode HOURLY;
  nominal_voltage 120;
  meter_power_consumption 1.333333+7.000000j;
  groupid Commercial_Meter;
  phases BS;
  name R1-12-47-3_load_17_tm_B_1;
  power_market Market_1;
  parent R1-12-47-3_load_17_tn_B_1;
};
object triplex_node {
  nominal_voltage 120;
  phases AS;
  name R1-12-47-3_load_2_tn_A_1;
};
object triplex_meter {
  bill_day 1;
  monthly_fee 25.00;
  bill_mode HOURLY;
  nominal_voltage 120;
  meter_power_consumption 1.333333+7.000000j;
  groupid Commercial_Meter;
  phases AS;
  name R1-12-47-3_load_2_tm_A_1;
  power_market Market_1;
  parent R1-12-47-3_load_2_tn_A_1;
};
object house {
  heating_setpoint stripmall_heating;
  cooling_setpoint 85;
  cooling_COP 2.55;
  over_sizing_factor 0.1;
  mass_temperature 69.75;
  air_temperature 69.75;
  cooling_system_type ELECTRIC;
  fan_type ONE_SPEED;
  auxiliary_system_type NONE;
  heating_system_type GAS;
  window_wall_ratio 0.050;
  airchange_per_hour 1.76;
  window_frame NONE;
  glazing_treatment LOW_S;
  glass_type GLASS;
  glazing_layers TWO;
  exterior_wall_fraction 0.40;
  Rdoors 3.0;
  Rfloor 40.00;
  Rroof 19.0;
  Rwall 18.3;
  exterior_ceiling_fraction 1.000;
  exterior_floor_fraction 0.800;
  interior_exterior_wall_ratio -0.1;
  interior_surface_heat_transfer_coeff 0.59;
  total_thermal_mass_per_floor_area 4.45;
  aspect_ratio 1.50;
  number_of_doors 1;
  design_internal_gains 30298;
  floor_area 2466;
  schedule_skew 3600;
  groupid Commercial;
  name stripmallR1-12-47-3_load_2_A1;
  parent R1-12-47-3_load_2_tm_A_1;
};
object triplex_meter {
  nominal_voltage 120;
  voltage_N 0;
  voltage_2 -60-103.92j;
  voltage_1 -60-103.92j;
  phases BS;
  name R1-12-47-3_tm_1;
};
object triplex_meter {
  nominal_voltage 120;
  bill_day 1;
  monthly_fee 10.00;
  bill_mode HOURLY;
  meter_power_consumption 2+11j;
  groupid Residential_Meter;
  name tpm9_R1-12-47-3_tm_1;
  phases BS;
  power_market Market_1;
  parent R1-12-47-3_tm_1;
};
object triplex_node {
  nominal_voltage 120;
  phases BS;
  name R1-12-47-3_load_16_tn_B_1;
};
object triplex_meter {
  bill_day 1;
  monthly_fee 25.00;
  bill_mode HOURLY;
  nominal_voltage 120;
  meter_power_consumption 1.333333+7.000000j;
  groupid Commercial_Meter;
  phases BS;
  name R1-12-47-3_load_16_tm_B_1;
  power_market Market_1;
  parent R1-12-47-3_load_16_tn_B_1;
};
object house {
  heating_setpoint stripmall_heating;
  cooling_setpoint 85;
  cooling_COP 3.03;
  over_sizing_factor 0.1;
  mass_temperature 69.26;
  air_temperature 69.26;
  cooling_system_type ELECTRIC;
  fan_type ONE_SPEED;
  auxiliary_system_type NONE;
  heating_system_type GAS;
  window_wall_ratio 0.050;
  airchange_per_hour 1.76;
  window_frame NONE;
  glazing_treatment LOW_S;
  glass_type GLASS;
  glazing_layers TWO;
  exterior_wall_fraction 0.40;
  Rdoors 3.0;
  Rfloor 40.00;
  Rroof 19.0;
  Rwall 18.3;
  exterior_ceiling_fraction 1.000;
  exterior_floor_fraction 0.800;
  interior_exterior_wall_ratio -0.1;
  interior_surface_heat_transfer_coeff 0.59;
  total_thermal_mass_per_floor_area 4.36;
  aspect_ratio 1.50;
  number_of_doors 1;
  design_internal_gains 32413;
  floor_area 2638;
  schedule_skew -1800;
  groupid Commercial;
  name stripmallR1-12-47-3_load_16_B1;
  parent R1-12-47-3_load_16_tm_B_1;
};
object controller {
  name controller_33;
  state power_state;
  load hvac_load;
  total hvac_load;
  deadband thermostat_deadband;
  demand last_cooling_load;
  setpoint cooling_setpoint;
  target air_temperature;
  standard_deviation_target my_std;
  average_target my_avg;
  period 900;
  base_setpoint stripmall_cooling;
  ramp_low 2.411;
  ramp_high 2.411;
  range_low -0.005;
  range_high 2.946;
  control_mode RAMP;
  bid_mode ON;
  schedule_skew -1800;
  market Market_1;
  parent stripmallR1-12-47-3_load_16_B1;
};
object house {
  heating_setpoint 82.58;
  cooling_setpoint 85.58;
  hvac_breaker_rating 1000;
  breaker_amps 1000;
  motor_efficiency AVERAGE;
  motor_model BASIC;
  auxiliary_system_type ELECTRIC;
  auxiliary_strategy DEADBAND;
  cooling_system_type ELECTRIC;
  heating_COP 3.2;
  heating_system_type HEAT_PUMP;
  total_thermal_mass_per_floor_area 3.387;
  mass_temperature 71.50;
  air_temperature 71.50;
  cooling_COP 3.2;
  airchange_per_hour 0.59;
  Rdoors 2.42;
  window_frame 2;
  glazing_treatment 1;
  glass_type 1;
  glazing_layers 2;
  Rfloor 15.63;
  Rwall 17.83;
  Rroof 30.08;
  over_sizing_factor 0.1;
  ceiling_height 8;
  number_of_stories 1;
  floor_area 1298;
  schedule_skew 62;
  groupid Residential;
  name house9_R1-12-47-3_tm_1;
  parent tpm9_R1-12-47-3_tm_1;
};
object triplex_line_configuration {
  diameter 0.522;
  insulation_thickness 0.08;
  name commercial_line_config;
};
object recorder {
  name recorder_0;
  file R1_1247_3_t6_markets.csv;
  interval 900;
  limit 702720;
  property past_market.clearing_price,my_avg,my_std;
  parent Market_1;
};
object triplex_node {
  nominal_voltage 120;
  phases CS;
  name R1-12-47-3_load_20_tn_C_1;
};
object triplex_meter {
  bill_day 1;
  monthly_fee 25.00;
  bill_mode HOURLY;
  nominal_voltage 120;
  meter_power_consumption 1.333333+7.000000j;
  groupid Commercial_Meter;
  phases CS;
  name R1-12-47-3_load_20_tm_C_1;
  power_market Market_1;
  parent R1-12-47-3_load_20_tn_C_1;
};
object house {
  heating_setpoint stripmall_heating;
  cooling_setpoint 85;
  cooling_COP 3.17;
  over_sizing_factor 0.1;
  mass_temperature 70.29;
  air_temperature 70.29;
  cooling_system_type ELECTRIC;
  fan_type ONE_SPEED;
  auxiliary_system_type NONE;
  heating_system_type GAS;
  window_wall_ratio 0.050;
  airchange_per_hour 1.76;
  window_frame NONE;
  glazing_treatment LOW_S;
  glass_type GLASS;
  glazing_layers TWO;
  exterior_wall_fraction 0.40;
  Rdoors 3.0;
  Rfloor 40.00;
  Rroof 19.0;
  Rwall 18.3;
  exterior_ceiling_fraction 1.000;
  exterior_floor_fraction 0.800;
  interior_exterior_wall_ratio -0.1;
  interior_surface_heat_transfer_coeff 0.59;
  total_thermal_mass_per_floor_area 3.09;
  aspect_ratio 1.50;
  number_of_doors 1;
  design_internal_gains 33173;
  floor_area 2700;
  schedule_skew 1800;
  groupid Commercial;
  name stripmallR1-12-47-3_load_20_C1;
  parent R1-12-47-3_load_20_tm_C_1;
};
object ZIPload {
  base_power stripmall_gas*2.98;
  power_pf 1.0;
  current_fraction 0.0;
  impedance_fraction 0.0;
  power_fraction 0.0;
  heatgain_fraction 1.0;
  schedule_skew 1800;
  name wh_R1-12-47-3_load_20_C_1;
  parent stripmallR1-12-47-3_load_20_C1;
};
object triplex_node {
  nominal_voltage 120;
  phases BS;
  name R1-12-47-3_load_18_tn_B_2;
};
object triplex_meter {
  bill_day 1;
  monthly_fee 25.00;
  bill_mode HOURLY;
  nominal_voltage 120;
  meter_power_consumption 1.333333+7.000000j;
  groupid Commercial_Meter;
  phases BS;
  name R1-12-47-3_load_18_tm_B_2;
  power_market Market_1;
  parent R1-12-47-3_load_18_tn_B_2;
};
object house {
  heating_setpoint stripmall_heating;
  cooling_setpoint 85;
  cooling_COP 2.74;
  over_sizing_factor 0.1;
  mass_temperature 70.60;
  air_temperature 70.60;
  cooling_system_type ELECTRIC;
  fan_type ONE_SPEED;
  auxiliary_system_type NONE;
  heating_system_type GAS;
  window_wall_ratio 0.050;
  airchange_per_hour 1.76;
  window_frame NONE;
  glazing_treatment LOW_S;
  glass_type GLASS;
  glazing_layers TWO;
  exterior_wall_fraction 0.40;
  Rdoors 3.0;
  Rfloor 40.00;
  Rroof 19.0;
  Rwall 18.3;
  exterior_ceiling_fraction 1.000;
  exterior_floor_fraction 0.800;
  interior_exterior_wall_ratio -0.1;
  interior_surface_heat_transfer_coeff 0.59;
  total_thermal_mass_per_floor_area 4.47;
  aspect_ratio 1.50;
  number_of_doors 1;
  design_internal_gains 26520;
  floor_area 2158;
  schedule_skew -0;
  groupid Commercial;
  name stripmallR1-12-47-3_load_18_B2;
  parent R1-12-47-3_load_18_tm_B_2;
};
object ZIPload {
  base_power stripmall_exterior*2.30;
  impedance_pf 1.00;
  current_pf 1.00;
  power_pf 1.00;
  current_fraction 0.40;
  impedance_fraction 0.20;
  power_fraction 0.40;
  heatgain_fraction 0.0;
  schedule_skew -0;
  name ext_R1-12-47-3_load_18_B_2;
  parent stripmallR1-12-47-3_load_18_B2;
};
object triplex_node {
  nominal_voltage 120;
  phases BS;
  name R1-12-47-3_load_2_tn_B_1;
};
object triplex_meter {
  bill_day 1;
  monthly_fee 25.00;
  bill_mode HOURLY;
  nominal_voltage 120;
  meter_power_consumption 1.333333+7.000000j;
  groupid Commercial_Meter;
  phases BS;
  name R1-12-47-3_load_2_tm_B_1;
  power_market Market_1;
  parent R1-12-47-3_load_2_tn_B_1;
};
object triplex_node {
  nominal_voltage 120;
  phases AS;
  name R1-12-47-3_load_21_tn_A_1;
};
object triplex_meter {
  bill_day 1;
  monthly_fee 25.00;
  bill_mode HOURLY;
  nominal_voltage 120;
  meter_power_consumption 1.333333+7.000000j;
  groupid Commercial_Meter;
  phases AS;
  name R1-12-47-3_load_21_tm_A_1;
  power_market Market_1;
  parent R1-12-47-3_load_21_tn_A_1;
};
object house {
  heating_setpoint stripmall_heating;
  cooling_setpoint 85;
  cooling_COP 3.51;
  over_sizing_factor 0.1;
  mass_temperature 68.95;
  air_temperature 68.95;
  cooling_system_type ELECTRIC;
  fan_type ONE_SPEED;
  auxiliary_system_type NONE;
  heating_system_type GAS;
  window_wall_ratio 0.050;
  airchange_per_hour 1.76;
  window_frame NONE;
  glazing_treatment LOW_S;
  glass_type GLASS;
  glazing_layers TWO;
  exterior_wall_fraction 0.40;
  Rdoors 3.0;
  Rfloor 40.00;
  Rroof 19.0;
  Rwall 18.3;
  exterior_ceiling_fraction 1.000;
  exterior_floor_fraction 0.800;
  interior_exterior_wall_ratio -0.1;
  interior_surface_heat_transfer_coeff 0.59;
  total_thermal_mass_per_floor_area 5.79;
  aspect_ratio 1.50;
  number_of_doors 1;
  design_internal_gains 21071;
  floor_area 1715;
  schedule_skew -1800;
  groupid Commercial;
  name stripmallR1-12-47-3_load_21_A1;
  parent R1-12-47-3_load_21_tm_A_1;
};
object ZIPload {
  base_power stripmall_plugs*1.59;
  impedance_pf 1.00;
  current_pf 1.00;
  power_pf 1.00;
  current_fraction 0.40;
  impedance_fraction 0.20;
  power_fraction 0.40;
  heatgain_fraction 1.0;
  schedule_skew -1800;
  name plugs_R1-12-47-3_load_21_A_1;
  parent stripmallR1-12-47-3_load_21_A1;
};
object triplex_node {
  nominal_voltage 120;
  phases AS;
  name R1-12-47-3_load_11_tn_A_2;
};
object triplex_meter {
  bill_day 1;
  monthly_fee 25.00;
  bill_mode HOURLY;
  nominal_voltage 120;
  meter_power_consumption 1.333333+7.000000j;
  groupid Commercial_Meter;
  phases AS;
  name R1-12-47-3_load_11_tm_A_2;
  power_market Market_1;
  parent R1-12-47-3_load_11_tn_A_2;
};
object node {
  nominal_voltage 480.000000;
  name R1-12-47-3_load_4_strip_node;
  phases CN;
};
object triplex_node {
  nominal_voltage 120;
  phases CS;
  name R1-12-47-3_load_3_tn_C_1;
};
object triplex_meter {
  bill_day 1;
  monthly_fee 25.00;
  bill_mode HOURLY;
  nominal_voltage 120;
  meter_power_consumption 1.333333+7.000000j;
  groupid Commercial_Meter;
  phases CS;
  name R1-12-47-3_load_3_tm_C_1;
  power_market Market_1;
  parent R1-12-47-3_load_3_tn_C_1;
};
object house {
  heating_setpoint stripmall_heating;
  cooling_setpoint 85;
  cooling_COP 3.19;
  over_sizing_factor 0.1;
  mass_temperature 71.08;
  air_temperature 71.08;
  cooling_system_type ELECTRIC;
  fan_type ONE_SPEED;
  auxiliary_system_type NONE;
  heating_system_type GAS;
  window_wall_ratio 0.050;
  airchange_per_hour 1.76;
  window_frame NONE;
  glazing_treatment LOW_S;
  glass_type GLASS;
  glazing_layers TWO;
  exterior_wall_fraction 0.40;
  Rdoors 3.0;
  Rfloor 40.00;
  Rroof 19.0;
  Rwall 18.3;
  exterior_ceiling_fraction 1.000;
  exterior_floor_fraction 0.800;
  interior_exterior_wall_ratio -0.1;
  interior_surface_heat_transfer_coeff 0.59;
  total_thermal_mass_per_floor_area 3.10;
  aspect_ratio 1.50;
  number_of_doors 1;
  design_internal_gains 37511;
  floor_area 3053;
  schedule_skew -0;
  groupid Commercial;
  name stripmallR1-12-47-3_load_3_C1;
  parent R1-12-47-3_load_3_tm_C_1;
};
object line_spacing {
  distance_CN 0.0 in;
  distance_BN 0.0 in;
  distance_AN 0.0 in;
  distance_AC 0.0 in;
  distance_BC 0.0 in;
  distance_AB 0.0 in;
  name line_spacing_9;
};
object underground_line_conductor {
  shield_resistance 0.00;
  shield_gmr 0.00;
  neutral_strands 20.0;
  neutral_diameter 0.1019;
  neutral_resistance 5.3856;
  neutral_gmr 0.0842565914341201 ft;
  conductor_resistance 0.091872;
  conductor_diameter 1.152;
  conductor_gmr 0.0371 ft;
  outer_diameter 2.15;
  rating.summer.continuous 488.0;
  name underground_line_conductor_2;
};
object line_configuration {
  name line_configuration_17;
  spacing line_spacing_9;
  conductor_N underground_line_conductor_2;
  conductor_C underground_line_conductor_2;
  conductor_B underground_line_conductor_2;
  conductor_A underground_line_conductor_2;
};
object node {
  nominal_voltage 7200;
  voltage_C -3600+6235j;
  voltage_B -3600-6235j;
  voltage_A 7200+0.0j;
  phases ABCN;
  name R1-12-47-3_node_3;
};
object node {
  nominal_voltage 7200;
  voltage_C -3600+6235j;
  voltage_B -3600-6235j;
  voltage_A 7200+0.0j;
  phases ABCN;
  name R1-12-47-3_node_2;
};
object underground_line {
  length 84.593;
  phases ABCN;
  name R1-12-47-3_ul_1;
  groupid Distribution_Line;
  configuration line_configuration_17;
  to R1-12-47-3_node_3;
  from R1-12-47-3_node_2;
};
object transformer_configuration {
  powerA_rating 100 kVA;
  secondary_voltage 207.846;
  primary_voltage 480.000;
  shunt_impedance 100000+100000j;
  impedance 0.00033+0.0022j;
  install_type POLETOP;
  connect_type SINGLE_PHASE_CENTER_TAPPED;
  name CTTF_config_A_R1-12-47-3_load_20;
};
object triplex_node {
  nominal_voltage 120;
  phases AS;
  name R1-12-47-3_load_20_tn_A_1;
};
object node {
  nominal_voltage 480.000000;
  name R1-12-47-3_load_20_strip_node;
  phases ABCN;
};
object transformer {
  groupid Distribution_Trans;
  phases AS;
  name R1-12-47-3_load_20_CTTF_A_1;
  configuration CTTF_config_A_R1-12-47-3_load_20;
  to R1-12-47-3_load_20_tn_A_1;
  from R1-12-47-3_load_20_strip_node;
};
object transformer_configuration {
  powerC_rating 100 kVA;
  secondary_voltage 207.846;
  primary_voltage 480.000;
  shunt_impedance 100000+100000j;
  impedance 0.00033+0.0022j;
  install_type POLETOP;
  connect_type SINGLE_PHASE_CENTER_TAPPED;
  name CTTF_config_C_R1-12-47-3_load_18;
};
object triplex_node {
  nominal_voltage 120;
  phases CS;
  name R1-12-47-3_load_18_tn_C_1;
};
object node {
  nominal_voltage 480.000000;
  name R1-12-47-3_load_18_strip_node;
  phases ABCN;
};
object transformer {
  groupid Distribution_Trans;
  phases CS;
  name R1-12-47-3_load_18_CTTF_C_1;
  configuration CTTF_config_C_R1-12-47-3_load_18;
  to R1-12-47-3_load_18_tn_C_1;
  from R1-12-47-3_load_18_strip_node;
};
object triplex_node {
  nominal_voltage 120;
  phases CS;
  name R1-12-47-3_load_1_tn_C_2;
};
object triplex_node {
  nominal_voltage 120;
  phases BS;
  name R1-12-47-3_load_6_tn_B_1;
};
object triplex_meter {
  bill_day 1;
  monthly_fee 25.00;
  bill_mode HOURLY;
  nominal_voltage 120;
  meter_power_consumption 1.333333+7.000000j;
  groupid Commercial_Meter;
  phases BS;
  name R1-12-47-3_load_6_tm_B_1;
  power_market Market_1;
  parent R1-12-47-3_load_6_tn_B_1;
};
object triplex_node {
  nominal_voltage 120;
  phases CS;
  name R1-12-47-3_load_4_tn_C_1;
};
object triplex_meter {
  bill_day 1;
  monthly_fee 25.00;
  bill_mode HOURLY;
  nominal_voltage 120;
  meter_power_consumption 1.333333+7.000000j;
  groupid Commercial_Meter;
  phases CS;
  name R1-12-47-3_load_4_tm_C_1;
  power_market Market_1;
  parent R1-12-47-3_load_4_tn_C_1;
};
object house {
  heating_setpoint stripmall_heating;
  cooling_setpoint 85;
  cooling_COP 2.56;
  over_sizing_factor 0.1;
  mass_temperature 68.21;
  air_temperature 68.21;
  cooling_system_type ELECTRIC;
  fan_type ONE_SPEED;
  auxiliary_system_type NONE;
  heating_system_type GAS;
  window_wall_ratio 0.050;
  airchange_per_hour 1.76;
  window_frame NONE;
  glazing_treatment LOW_S;
  glass_type GLASS;
  glazing_layers TWO;
  exterior_wall_fraction 0.40;
  Rdoors 3.0;
  Rfloor 40.00;
  Rroof 19.0;
  Rwall 18.3;
  exterior_ceiling_fraction 1.000;
  exterior_floor_fraction 0.800;
  interior_exterior_wall_ratio -0.1;
  interior_surface_heat_transfer_coeff 0.59;
  total_thermal_mass_per_floor_area 2.36;
  aspect_ratio 1.50;
  number_of_doors 1;
  design_internal_gains 38281;
  floor_area 3116;
  schedule_skew 5400;
  groupid Commercial;
  name stripmallR1-12-47-3_load_4_C1;
  parent R1-12-47-3_load_4_tm_C_1;
};
object ZIPload {
  base_power stripmall_lights*3.68;
  impedance_pf 1.00;
  current_pf 1.00;
  power_pf 1.00;
  current_fraction 0.40;
  impedance_fraction 0.20;
  power_fraction 0.40;
  heatgain_fraction 1.0;
  schedule_skew 5400;
  name lights_R1-12-47-3_load_4_C_1;
  parent stripmallR1-12-47-3_load_4_C1;
};
object transformer_configuration {
  powerA_rating 50 kVA;
  secondary_voltage 207.846;
  primary_voltage 480.000;
  shunt_impedance 100000+100000j;
  impedance 0.00033+0.0022j;
  install_type POLETOP;
  connect_type SINGLE_PHASE_CENTER_TAPPED;
  name CTTF_config_A_R1-12-47-3_load_12;
};
object transformer_configuration {
  shunt_impedance 339.610+298.041j;
  reactance 0.02000;
  resistance 0.00400;
  powerC_rating 25.0;
  powerA_rating 0.0;
  power_rating 25.0;
  secondary_voltage 480 V;
  primary_voltage 12470.000 V;
  install_type POLETOP;
  connect_type WYE_WYE;
  name transformer_configuration_136;
};
object triplex_meter {
  nominal_voltage 120;
  bill_day 1;
  monthly_fee 10.00;
  bill_mode HOURLY;
  meter_power_consumption 2+11j;
  groupid Residential_Meter;
  name tpm7_R1-12-47-3_tm_1;
  phases BS;
  power_market Market_1;
  parent R1-12-47-3_tm_1;
};
object house {
  heating_setpoint 70.40;
  cooling_setpoint 73.40;
  hvac_breaker_rating 1000;
  breaker_amps 1000;
  cooling_system_type NONE;
  heating_system_type RESISTANCE;
  total_thermal_mass_per_floor_area 3.645;
  mass_temperature 69.83;
  air_temperature 69.83;
  cooling_COP 2.9;
  airchange_per_hour 0.77;
  Rdoors 3.51;
  window_frame 2;
  glazing_treatment 1;
  glass_type 2;
  glazing_layers 2;
  Rfloor 17.39;
  Rwall 10.26;
  Rroof 19.61;
  over_sizing_factor 0.1;
  ceiling_height 8;
  number_of_stories 1;
  floor_area 919;
  schedule_skew -1412;
  groupid Residential;
  name house7_R1-12-47-3_tm_1;
  parent tpm7_R1-12-47-3_tm_1;
};
object waterheater {
  name waterheater_5;
  tank_volume 40;
  demand small_2*0.95;
  tank_UA 3.4;
  location INSIDE;
  thermostat_deadband 6.1;
  temperature 132;
  tank_setpoint 128.2;
  heating_element_capacity 3.5 kW;
  schedule_skew 10982;
  parent house7_R1-12-47-3_tm_1;
};
object triplex_node {
  nominal_voltage 120;
  phases AS;
  name R1-12-47-3_load_7_tn_A_1;
};
object triplex_meter {
  bill_day 1;
  monthly_fee 25.00;
  bill_mode HOURLY;
  nominal_voltage 120;
  meter_power_consumption 1.333333+7.000000j;
  groupid Commercial_Meter;
  phases AS;
  name R1-12-47-3_load_7_tm_A_1;
  power_market Market_1;
  parent R1-12-47-3_load_7_tn_A_1;
};
object line_spacing {
  distance_CN 84.0 in;
  distance_AN 84.0 in;
  distance_AC 57.6 in;
  name line_spacing_11;
};
object overhead_line_conductor {
  resistance 1.50000;
  geometric_mean_radius 0.00663 ft;
  rating.summer.continuous 149.0;
  name overhead_line_conductor_5;
};
object line_configuration {
  name line_configuration_22;
  spacing line_spacing_11;
  conductor_N overhead_line_conductor_5;
  conductor_C overhead_line_conductor_5;
  conductor_A overhead_line_conductor_5;
};
object node {
  nominal_voltage 7200;
  voltage_C -3600+6235j;
  voltage_B -3600-6235j;
  voltage_A 7200+0.0j;
  phases ABCN;
  name R1-12-47-3_node_17;
};
object node {
  nominal_voltage 7200;
  voltage_C -3600+6235j;
  voltage_B -3600-6235j;
  voltage_A 7200+0.0j;
  phases ABCN;
  name R1-12-47-3_node_15;
};
object switch {
  status CLOSED;
  phases ABCN;
  name R1-12-47-3_switch_4;
  to R1-12-47-3_node_17;
  from R1-12-47-3_node_15;
};
object billdump {
  name billdump_10;
  meter_type TRIPLEX_METER;
  group Commercial_Meter;
  filename R1_1247_3_t6_bill_commSP6.csv;
  runtime 2009-07-01 03:00:00;
};
object triplex_meter {
  nominal_voltage 120;
  bill_day 1;
  monthly_fee 10.00;
  bill_mode HOURLY;
  meter_power_consumption 2+11j;
  groupid Residential_Meter;
  name tpm1_R1-12-47-3_tm_1;
  phases BS;
  power_market Market_1;
  parent R1-12-47-3_tm_1;
};
object house {
  heating_setpoint heating6*0.35+59.01;
  cooling_setpoint cooling6*1.59+69.19;
  hvac_breaker_rating 1000;
  breaker_amps 1000;
  cooling_system_type NONE;
  heating_system_type GAS;
  total_thermal_mass_per_floor_area 3.504;
  mass_temperature 71.22;
  air_temperature 71.22;
  cooling_COP 3.8;
  airchange_per_hour 0.23;
  Rdoors 10.51;
  window_frame 4;
  glazing_treatment 2;
  glass_type 2;
  glazing_layers 3;
  Rfloor 35.59;
  Rwall 27.33;
  Rroof 50.34;
  over_sizing_factor 0.1;
  ceiling_height 8;
  number_of_stories 1;
  floor_area 2101;
  schedule_skew 1083;
  groupid Residential;
  name house1_R1-12-47-3_tm_1;
  parent tpm1_R1-12-47-3_tm_1;
};
object ZIPload {
  name ZIPload0;
  power_fraction 0.400000;
  current_fraction 0.400000;
  impedance_fraction 0.200000;
  impedance_pf 1.000;
  current_pf 1.000;
  power_pf 1.000;
  heatgain_fraction 0.900;
  base_power unresponsive_loads*0.90;
  schedule_skew 1083;
  parent house1_R1-12-47-3_tm_1;
};
object triplex_node {
  nominal_voltage 120;
  phases BS;
  name R1-12-47-3_load_8_tn_B_1;
};
object triplex_meter {
  bill_day 1;
  monthly_fee 25.00;
  bill_mode HOURLY;
  nominal_voltage 120;
  meter_power_consumption 1.333333+7.000000j;
  groupid Commercial_Meter;
  phases BS;
  name R1-12-47-3_load_8_tm_B_1;
  power_market Market_1;
  parent R1-12-47-3_load_8_tn_B_1;
};
object house {
  heating_setpoint stripmall_heating;
  cooling_setpoint 85;
  cooling_COP 2.56;
  over_sizing_factor 0.1;
  mass_temperature 68.41;
  air_temperature 68.41;
  cooling_system_type ELECTRIC;
  fan_type ONE_SPEED;
  auxiliary_system_type NONE;
  heating_system_type GAS;
  window_wall_ratio 0.050;
  airchange_per_hour 1.76;
  window_frame NONE;
  glazing_treatment LOW_S;
  glass_type GLASS;
  glazing_layers TWO;
  exterior_wall_fraction 0.40;
  Rdoors 3.0;
  Rfloor 40.00;
  Rroof 19.0;
  Rwall 18.3;
  exterior_ceiling_fraction 1.000;
  exterior_floor_fraction 0.800;
  interior_exterior_wall_ratio -0.1;
  interior_surface_heat_transfer_coeff 0.59;
  total_thermal_mass_per_floor_area 2.37;
  aspect_ratio 1.50;
  number_of_doors 1;
  design_internal_gains 35101;
  floor_area 2857;
  schedule_skew 1800;
  groupid Commercial;
  name stripmallR1-12-47-3_load_8_B1;
  parent R1-12-47-3_load_8_tm_B_1;
};
object ZIPload {
  base_power stripmall_exterior*3.22;
  impedance_pf 1.00;
  current_pf 1.00;
  power_pf 1.00;
  current_fraction 0.40;
  impedance_fraction 0.20;
  power_fraction 0.40;
  heatgain_fraction 0.0;
  schedule_skew 1800;
  name ext_R1-12-47-3_load_8_B_1;
  parent stripmallR1-12-47-3_load_8_B1;
};
object triplex_node {
  nominal_voltage 120;
  phases CS;
  name R1-12-47-3_load_6_tn_C_1;
};
object triplex_meter {
  bill_day 1;
  monthly_fee 25.00;
  bill_mode HOURLY;
  nominal_voltage 120;
  meter_power_consumption 1.333333+7.000000j;
  groupid Commercial_Meter;
  phases CS;
  name R1-12-47-3_load_6_tm_C_1;
  power_market Market_1;
  parent R1-12-47-3_load_6_tn_C_1;
};
object house {
  heating_setpoint stripmall_heating;
  cooling_setpoint 85;
  cooling_COP 2.66;
  over_sizing_factor 0.1;
  mass_temperature 70.86;
  air_temperature 70.86;
  cooling_system_type ELECTRIC;
  fan_type ONE_SPEED;
  auxiliary_system_type NONE;
  heating_system_type GAS;
  window_wall_ratio 0.050;
  airchange_per_hour 1.76;
  window_frame NONE;
  glazing_treatment LOW_S;
  glass_type GLASS;
  glazing_layers TWO;
  exterior_wall_fraction 0.40;
  Rdoors 3.0;
  Rfloor 40.00;
  Rroof 19.0;
  Rwall 18.3;
  exterior_ceiling_fraction 1.000;
  exterior_floor_fraction 0.800;
  interior_exterior_wall_ratio -0.1;
  interior_surface_heat_transfer_coeff 0.59;
  total_thermal_mass_per_floor_area 2.11;
  aspect_ratio 1.50;
  number_of_doors 1;
  design_internal_gains 25615;
  floor_area 2085;
  schedule_skew -3600;
  groupid Commercial;
  name stripmallR1-12-47-3_load_6_C1;
  parent R1-12-47-3_load_6_tm_C_1;
};
object ZIPload {
  base_power stripmall_exterior*1.97;
  impedance_pf 1.00;
  current_pf 1.00;
  power_pf 1.00;
  current_fraction 0.40;
  impedance_fraction 0.20;
  power_fraction 0.40;
  heatgain_fraction 0.0;
  schedule_skew -3600;
  name ext_R1-12-47-3_load_6_C_1;
  parent stripmallR1-12-47-3_load_6_C1;
};
object billdump {
  name billdump_19;
  meter_type TRIPLEX_METER;
  group Residential_Meter;
  filename R1_1247_3_t6_bill_res11.csv;
  runtime 2009-12-01 03:00:00;
};
object billdump {
  name billdump_20;
  meter_type TRIPLEX_METER;
  group Commercial_Meter;
  filename R1_1247_3_t6_bill_commSP11.csv;
  runtime 2009-12-01 03:00:00;
};
object triplex_meter {
  nominal_voltage 120;
  bill_day 1;
  monthly_fee 10.00;
  bill_mode HOURLY;
  meter_power_consumption 2+11j;
  groupid Residential_Meter;
  name tpm6_R1-12-47-3_tm_1;
  phases BS;
  power_market Market_1;
  parent R1-12-47-3_tm_1;
};
object transformer_configuration {
  shunt_impedance 391.760+396.403j;
  reactance 0.01000;
  resistance 0.00200;
  powerC_rating 50.0;
  power_rating 50.0;
  secondary_voltage 480 V;
  primary_voltage 12470.000 V;
  install_type POLETOP;
  connect_type WYE_WYE;
  name transformer_configuration_137;
};
object meter {
  nominal_voltage 480;
  phases ABCN;
  name R1-12-47-3_meter_21;
};
object transformer_configuration {
  shunt_impedance 443.910+482.260j;
  reactance 0.00667;
  resistance 0.00133;
  powerC_rating 50.0;
  powerB_rating 25.0;
  powerA_rating 0.0;
  power_rating 75.0;
  secondary_voltage 480 V;
  primary_voltage 12470.000 V;
  install_type POLETOP;
  connect_type WYE_WYE;
  name transformer_configuration_142;
};
object node {
  nominal_voltage 480.000000;
  name R1-12-47-3_load_21_strip_node;
  phases ABCN;
};
object controller {
  name controller_2;
  state power_state;
  load hvac_load;
  total hvac_load;
  deadband thermostat_deadband;
  cooling_demand last_cooling_load;
  cooling_setpoint cooling_setpoint;
  heating_demand last_heating_load;
  heating_setpoint heating_setpoint;
  target air_temperature;
  standard_deviation_target my_std;
  average_target my_avg;
  period 900;
  heating_base_setpoint heating5*0.03+73.79;
  cooling_base_setpoint cooling7*1.50+85.58;
  cooling_ramp_low 2.756;
  heating_ramp_low -2.756;
  cooling_ramp_high 2.756;
  heating_ramp_high -2.756;
  cooling_range_low -0.005;
  heating_range_low -0.005;
  cooling_range_high 1.222;
  heating_range_high -1.222;
  resolve_mode DEADBAND;
  control_mode DOUBLE_RAMP;
  bid_mode ON;
  schedule_skew 62;
  market Market_1;
  parent house9_R1-12-47-3_tm_1;
};
object node {
  nominal_voltage 7200;
  voltage_C -3600+6235j;
  voltage_B -3600-6235j;
  voltage_A 7200+0.0j;
  phases ABCN;
  name R1-12-47-3_node_18;
};
object overhead_line_conductor {
  resistance 1.62570;
  geometric_mean_radius 0.00418 ft;
  rating.summer.continuous 180.0;
  name overhead_line_conductor_6;
};
object line_spacing {
  distance_CN 84.0 in;
  distance_BN 84.0 in;
  distance_AN 84.0 in;
  distance_AC 57.6 in;
  distance_BC 57.6 in;
  distance_AB 57.6 in;
  name line_spacing_10;
};
object line_configuration {
  name line_configuration_24;
  spacing line_spacing_10;
  conductor_N overhead_line_conductor_6;
  conductor_C overhead_line_conductor_6;
  conductor_B overhead_line_conductor_6;
  conductor_A overhead_line_conductor_6;
};
object overhead_line {
  length 1499.769;
  phases ABCN;
  name R1-12-47-3_ol_14;
  groupid Distribution_Line;
  configuration line_configuration_24;
  to R1-12-47-3_node_18;
  from R1-12-47-3_node_17;
};
object house {
  heating_setpoint stripmall_heating;
  cooling_setpoint 85;
  cooling_COP 2.73;
  over_sizing_factor 0.1;
  mass_temperature 70.45;
  air_temperature 70.45;
  cooling_system_type ELECTRIC;
  fan_type ONE_SPEED;
  auxiliary_system_type NONE;
  heating_system_type GAS;
  window_wall_ratio 0.050;
  airchange_per_hour 1.76;
  window_frame NONE;
  glazing_treatment LOW_S;
  glass_type GLASS;
  glazing_layers TWO;
  exterior_wall_fraction 0.40;
  Rdoors 3.0;
  Rfloor 40.00;
  Rroof 19.0;
  Rwall 18.3;
  exterior_ceiling_fraction 1.000;
  exterior_floor_fraction 0.800;
  interior_exterior_wall_ratio -0.1;
  interior_surface_heat_transfer_coeff 0.59;
  total_thermal_mass_per_floor_area 5.53;
  aspect_ratio 1.50;
  number_of_doors 1;
  design_internal_gains 21097;
  floor_area 1717;
  schedule_skew 1800;
  groupid Commercial;
  name stripmallR1-12-47-3_load_17_B1;
  parent R1-12-47-3_load_17_tm_B_1;
};
object ZIPload {
  base_power stripmall_lights*1.52;
  impedance_pf 1.00;
  current_pf 1.00;
  power_pf 1.00;
  current_fraction 0.40;
  impedance_fraction 0.20;
  power_fraction 0.40;
  heatgain_fraction 1.0;
  schedule_skew 1800;
  name lights_R1-12-47-3_load_17_B_1;
  parent stripmallR1-12-47-3_load_17_B1;
};
object triplex_meter {
  bill_day 1;
  monthly_fee 25.00;
  bill_mode HOURLY;
  nominal_voltage 120;
  meter_power_consumption 1.333333+7.000000j;
  groupid Commercial_Meter;
  phases CS;
  name R1-12-47-3_load_1_tm_C_2;
  power_market Market_1;
  parent R1-12-47-3_load_1_tn_C_2;
};
object house {
  heating_setpoint stripmall_heating;
  cooling_setpoint 85;
  cooling_COP 3.07;
  over_sizing_factor 0.1;
  mass_temperature 68.14;
  air_temperature 68.14;
  cooling_system_type ELECTRIC;
  fan_type ONE_SPEED;
  auxiliary_system_type NONE;
  heating_system_type GAS;
  window_wall_ratio 0.050;
  airchange_per_hour 1.76;
  window_frame NONE;
  glazing_treatment LOW_S;
  glass_type GLASS;
  glazing_layers TWO;
  exterior_wall_fraction 0.40;
  Rdoors 3.0;
  Rfloor 40.00;
  Rroof 19.0;
  Rwall 18.3;
  exterior_ceiling_fraction 1.000;
  exterior_floor_fraction 0.800;
  interior_exterior_wall_ratio -0.1;
  interior_surface_heat_transfer_coeff 0.59;
  total_thermal_mass_per_floor_area 2.36;
  aspect_ratio 1.50;
  number_of_doors 1;
  design_internal_gains 35596;
  floor_area 2897;
  schedule_skew -3600;
  groupid Commercial;
  name stripmallR1-12-47-3_load_1_C2;
  parent R1-12-47-3_load_1_tm_C_2;
};
object triplex_node {
  nominal_voltage 120;
  phases CS;
  name R1-12-47-3_load_4_tn_C_2;
};
object triplex_meter {
  bill_day 1;
  monthly_fee 25.00;
  bill_mode HOURLY;
  nominal_voltage 120;
  meter_power_consumption 1.333333+7.000000j;
  groupid Commercial_Meter;
  phases CS;
  name R1-12-47-3_load_4_tm_C_2;
  power_market Market_1;
  parent R1-12-47-3_load_4_tn_C_2;
};
object house {
  heating_setpoint stripmall_heating;
  cooling_setpoint 85;
  cooling_COP 3.46;
  over_sizing_factor 0.1;
  mass_temperature 70.35;
  air_temperature 70.35;
  cooling_system_type ELECTRIC;
  fan_type ONE_SPEED;
  auxiliary_system_type NONE;
  heating_system_type GAS;
  window_wall_ratio 0.050;
  airchange_per_hour 1.76;
  window_frame NONE;
  glazing_treatment LOW_S;
  glass_type GLASS;
  glazing_layers TWO;
  exterior_wall_fraction 0.40;
  Rdoors 3.0;
  Rfloor 40.00;
  Rroof 19.0;
  Rwall 18.3;
  exterior_ceiling_fraction 1.000;
  exterior_floor_fraction 0.800;
  interior_exterior_wall_ratio -0.1;
  interior_surface_heat_transfer_coeff 0.59;
  total_thermal_mass_per_floor_area 2.36;
  aspect_ratio 1.50;
  number_of_doors 1;
  design_internal_gains 38281;
  floor_area 3116;
  schedule_skew -5400;
  groupid Commercial;
  name stripmallR1-12-47-3_load_4_C2;
  parent R1-12-47-3_load_4_tm_C_2;
};
object ZIPload {
  base_power stripmall_lights*3.42;
  impedance_pf 1.00;
  current_pf 1.00;
  power_pf 1.00;
  current_fraction 0.40;
  impedance_fraction 0.20;
  power_fraction 0.40;
  heatgain_fraction 1.0;
  schedule_skew -5400;
  name lights_R1-12-47-3_load_4_C_2;
  parent stripmallR1-12-47-3_load_4_C2;
};
object triplex_node {
  nominal_voltage 120;
  phases CS;
  name R1-12-47-3_load_20_tn_C_2;
};
object triplex_meter {
  bill_day 1;
  monthly_fee 25.00;
  bill_mode HOURLY;
  nominal_voltage 120;
  meter_power_consumption 1.333333+7.000000j;
  groupid Commercial_Meter;
  phases CS;
  name R1-12-47-3_load_20_tm_C_2;
  power_market Market_1;
  parent R1-12-47-3_load_20_tn_C_2;
};
object house {
  heating_setpoint stripmall_heating;
  cooling_setpoint 85;
  cooling_COP 2.81;
  over_sizing_factor 0.1;
  mass_temperature 68.01;
  air_temperature 68.01;
  cooling_system_type ELECTRIC;
  fan_type ONE_SPEED;
  auxiliary_system_type NONE;
  heating_system_type GAS;
  window_wall_ratio 0.050;
  airchange_per_hour 1.76;
  window_frame NONE;
  glazing_treatment LOW_S;
  glass_type GLASS;
  glazing_layers TWO;
  exterior_wall_fraction 0.40;
  Rdoors 3.0;
  Rfloor 40.00;
  Rroof 19.0;
  Rwall 18.3;
  exterior_ceiling_fraction 1.000;
  exterior_floor_fraction 0.800;
  interior_exterior_wall_ratio -0.1;
  interior_surface_heat_transfer_coeff 0.59;
  total_thermal_mass_per_floor_area 3.09;
  aspect_ratio 1.50;
  number_of_doors 1;
  design_internal_gains 33173;
  floor_area 2700;
  schedule_skew 3600;
  groupid Commercial;
  name stripmallR1-12-47-3_load_20_C2;
  parent R1-12-47-3_load_20_tm_C_2;
};
object ZIPload {
  base_power stripmall_occupancy*2.44;
  power_pf 1.0;
  current_fraction 0.0;
  impedance_fraction 0.0;
  power_fraction 0.0;
  heatgain_fraction 1.0;
  schedule_skew 3600;
  name occ_R1-12-47-3_load_20_C_2;
  parent stripmallR1-12-47-3_load_20_C2;
};
object line_spacing {
  distance_CN 84.0 in;
  distance_BN 84.0 in;
  distance_BC 57.6 in;
  name line_spacing_16;
};
object controller {
  name controller_5;
  state power_state;
  load hvac_load;
  total hvac_load;
  deadband thermostat_deadband;
  demand last_cooling_load;
  setpoint cooling_setpoint;
  target air_temperature;
  standard_deviation_target my_std;
  average_target my_avg;
  period 900;
  base_setpoint stripmall_cooling;
  ramp_low 2.411;
  ramp_high 2.411;
  range_low -0.005;
  range_high 2.946;
  control_mode RAMP;
  bid_mode ON;
  schedule_skew 3600;
  market Market_1;
  parent stripmallR1-12-47-3_load_2_A1;
};
object transformer_configuration {
  powerA_rating 50 kVA;
  secondary_voltage 207.846;
  primary_voltage 480.000;
  shunt_impedance 100000+100000j;
  impedance 0.00033+0.0022j;
  install_type POLETOP;
  connect_type SINGLE_PHASE_CENTER_TAPPED;
  name CTTF_config_A_R1-12-47-3_load_14;
};
object transformer_configuration {
  powerC_rating 100 kVA;
  secondary_voltage 207.846;
  primary_voltage 480.000;
  shunt_impedance 100000+100000j;
  impedance 0.00033+0.0022j;
  install_type POLETOP;
  connect_type SINGLE_PHASE_CENTER_TAPPED;
  name CTTF_config_C_R1-12-47-3_load_20;
};
object billdump {
  name billdump_21;
  meter_type TRIPLEX_METER;
  group Residential_Meter;
  filename R1_1247_3_t6_bill_res12.csv;
  runtime 2010-01-01 03:00:00;
};
object billdump {
  name billdump_22;
  meter_type TRIPLEX_METER;
  group Commercial_Meter;
  filename R1_1247_3_t6_bill_commSP12.csv;
  runtime 2010-01-01 03:00:00;
};
object transformer_configuration {
  shunt_impedance 1226.160+1358.242j;
  reactance 0.00022;
  resistance 0.00033;
  powerB_rating 450.0;
  power_rating 450.0;
  secondary_voltage 120 V;
  primary_voltage 7200 V;
  install_type POLETOP;
  connect_type SINGLE_PHASE_CENTER_TAPPED;
  name transformer_configuration_132;
};
object line_configuration {
  name line_configuration_27;
  spacing line_spacing_10;
  conductor_N overhead_line_conductor_5;
  conductor_C overhead_line_conductor_5;
  conductor_B overhead_line_conductor_5;
  conductor_A overhead_line_conductor_5;
};
object line_spacing {
  distance_CN 84.0 in;
  name line_spacing_12;
};
object line_configuration {
  name line_configuration_20;
  spacing line_spacing_12;
  conductor_N overhead_line_conductor_5;
  conductor_C overhead_line_conductor_5;
};
object triplex_node {
  nominal_voltage 120;
  phases BS;
  name R1-12-47-3_load_10_tn_B_1;
};
object triplex_meter {
  bill_day 1;
  monthly_fee 25.00;
  bill_mode HOURLY;
  nominal_voltage 120;
  meter_power_consumption 1.333333+7.000000j;
  groupid Commercial_Meter;
  phases BS;
  name R1-12-47-3_load_10_tm_B_1;
  power_market Market_1;
  parent R1-12-47-3_load_10_tn_B_1;
};
object house {
  heating_setpoint stripmall_heating;
  cooling_setpoint 85;
  cooling_COP 2.67;
  over_sizing_factor 0.1;
  mass_temperature 71.37;
  air_temperature 71.37;
  cooling_system_type ELECTRIC;
  fan_type ONE_SPEED;
  auxiliary_system_type NONE;
  heating_system_type GAS;
  window_wall_ratio 0.050;
  airchange_per_hour 1.76;
  window_frame NONE;
  glazing_treatment LOW_S;
  glass_type GLASS;
  glazing_layers TWO;
  exterior_wall_fraction 0.40;
  Rdoors 3.0;
  Rfloor 40.00;
  Rroof 19.0;
  Rwall 18.3;
  exterior_ceiling_fraction 1.000;
  exterior_floor_fraction 0.800;
  interior_exterior_wall_ratio -0.1;
  interior_surface_heat_transfer_coeff 0.59;
  total_thermal_mass_per_floor_area 3.18;
  aspect_ratio 1.50;
  number_of_doors 1;
  design_internal_gains 27061;
  floor_area 2202;
  schedule_skew 5400;
  groupid Commercial;
  name stripmallR1-12-47-3_load_10_B1;
  parent R1-12-47-3_load_10_tm_B_1;
};
object controller {
  name controller_24;
  state power_state;
  load hvac_load;
  total hvac_load;
  deadband thermostat_deadband;
  demand last_cooling_load;
  setpoint cooling_setpoint;
  target air_temperature;
  standard_deviation_target my_std;
  average_target my_avg;
  period 900;
  base_setpoint stripmall_cooling;
  ramp_low 2.411;
  ramp_high 2.411;
  range_low -0.005;
  range_high 2.946;
  control_mode RAMP;
  bid_mode ON;
  schedule_skew 5400;
  market Market_1;
  parent stripmallR1-12-47-3_load_10_B1;
};
object node {
  nominal_voltage 7200;
  voltage_B -3600-6235j;
  phases BN;
  name R1-12-47-3_node_40;
};
object node {
  nominal_voltage 7200;
  voltage_C -3600+6235j;
  voltage_B -3600-6235j;
  voltage_A 7200+0.0j;
  phases ABCN;
  name R1-12-47-3_node_36;
};
object fuse {
  status CLOSED;
  current_limit 50000;
  mean_replacement_time 1000;
  phases BN;
  name R1-12-47-3_fuse_7;
  to R1-12-47-3_node_40;
  from R1-12-47-3_node_36;
};
object triplex_node {
  nominal_voltage 120;
  phases BS;
  name R1-12-47-3_load_21_tn_B_1;
};
object triplex_meter {
  bill_day 1;
  monthly_fee 25.00;
  bill_mode HOURLY;
  nominal_voltage 120;
  meter_power_consumption 1.333333+7.000000j;
  groupid Commercial_Meter;
  phases BS;
  name R1-12-47-3_load_21_tm_B_1;
  power_market Market_1;
  parent R1-12-47-3_load_21_tn_B_1;
};
object house {
  heating_setpoint stripmall_heating;
  cooling_setpoint 85;
  cooling_COP 2.88;
  over_sizing_factor 0.1;
  mass_temperature 71.31;
  air_temperature 71.31;
  cooling_system_type ELECTRIC;
  fan_type ONE_SPEED;
  auxiliary_system_type NONE;
  heating_system_type GAS;
  window_wall_ratio 0.050;
  airchange_per_hour 1.76;
  window_frame NONE;
  glazing_treatment LOW_S;
  glass_type GLASS;
  glazing_layers TWO;
  exterior_wall_fraction 0.40;
  Rdoors 3.0;
  Rfloor 40.00;
  Rroof 19.0;
  Rwall 18.3;
  exterior_ceiling_fraction 1.000;
  exterior_floor_fraction 0.800;
  interior_exterior_wall_ratio -0.1;
  interior_surface_heat_transfer_coeff 0.59;
  total_thermal_mass_per_floor_area 3.23;
  aspect_ratio 1.50;
  number_of_doors 1;
  design_internal_gains 27126;
  floor_area 2208;
  schedule_skew 3600;
  groupid Commercial;
  name stripmallR1-12-47-3_load_21_B1;
  parent R1-12-47-3_load_21_tm_B_1;
};
object ZIPload {
  base_power stripmall_occupancy*1.87;
  power_pf 1.0;
  current_fraction 0.0;
  impedance_fraction 0.0;
  power_fraction 0.0;
  heatgain_fraction 1.0;
  schedule_skew 3600;
  name occ_R1-12-47-3_load_21_B_1;
  parent stripmallR1-12-47-3_load_21_B1;
};
object triplex_node {
  nominal_voltage 120;
  phases BS;
  name R1-12-47-3_load_20_tn_B_2;
};
object triplex_meter {
  bill_day 1;
  monthly_fee 25.00;
  bill_mode HOURLY;
  nominal_voltage 120;
  meter_power_consumption 1.333333+7.000000j;
  groupid Commercial_Meter;
  phases BS;
  name R1-12-47-3_load_20_tm_B_2;
  power_market Market_1;
  parent R1-12-47-3_load_20_tn_B_2;
};
object house {
  heating_setpoint stripmall_heating;
  cooling_setpoint 85;
  cooling_COP 2.98;
  over_sizing_factor 0.1;
  mass_temperature 69.79;
  air_temperature 69.79;
  cooling_system_type ELECTRIC;
  fan_type ONE_SPEED;
  auxiliary_system_type NONE;
  heating_system_type GAS;
  window_wall_ratio 0.050;
  airchange_per_hour 1.76;
  window_frame NONE;
  glazing_treatment LOW_S;
  glass_type GLASS;
  glazing_layers TWO;
  exterior_wall_fraction 0.40;
  Rdoors 3.0;
  Rfloor 40.00;
  Rroof 19.0;
  Rwall 18.3;
  exterior_ceiling_fraction 1.000;
  exterior_floor_fraction 0.800;
  interior_exterior_wall_ratio -0.1;
  interior_surface_heat_transfer_coeff 0.59;
  total_thermal_mass_per_floor_area 4.30;
  aspect_ratio 1.50;
  number_of_doors 1;
  design_internal_gains 29218;
  floor_area 2378;
  schedule_skew -1800;
  groupid Commercial;
  name stripmallR1-12-47-3_load_20_B2;
  parent R1-12-47-3_load_20_tm_B_2;
};
object ZIPload {
  base_power stripmall_exterior*2.14;
  impedance_pf 1.00;
  current_pf 1.00;
  power_pf 1.00;
  current_fraction 0.40;
  impedance_fraction 0.20;
  power_fraction 0.40;
  heatgain_fraction 0.0;
  schedule_skew -1800;
  name ext_R1-12-47-3_load_20_B_2;
  parent stripmallR1-12-47-3_load_20_B2;
};
object triplex_line_conductor {
  name triplex_line_conductor0;
  geometric_mean_radius 0.0158;
  resistance 0.48;
  parent commercial_line_config;
};
object meter {
  nominal_voltage 480;
  phases ABCN;
  name R1-12-47-3_meter_10;
};
object node {
  nominal_voltage 7200;
  voltage_C -3600+6235j;
  voltage_B -3600-6235j;
  voltage_A 7200+0.0j;
  phases ABCN;
  name R1-12-47-3_node_27;
};
object transformer {
  phases ABCN;
  name R1-12-47-3_xfmr_11;
  groupid Distribution_Trans;
  configuration transformer_configuration_142;
  to R1-12-47-3_meter_10;
  from R1-12-47-3_node_27;
};
object line_spacing {
  distance_AN 84.0 in;
  name line_spacing_13;
};
object line_configuration {
  name line_configuration_32;
  spacing line_spacing_13;
  conductor_N overhead_line_conductor_5;
  conductor_A overhead_line_conductor_5;
};
object node {
  nominal_voltage 7200;
  voltage_A 7200+0.0j;
  phases AN;
  name R1-12-47-3_node_29;
};
object node {
  nominal_voltage 7200;
  voltage_A 7200+0.0j;
  phases AN;
  name R1-12-47-3_node_28;
};
object overhead_line {
  length 111.674;
  phases AN;
  name R1-12-47-3_ol_20;
  groupid Distribution_Line;
  configuration line_configuration_32;
  to R1-12-47-3_node_29;
  from R1-12-47-3_node_28;
};
object triplex_node {
  nominal_voltage 120;
  phases AS;
  name R1-12-47-3_load_19_tn_A_1;
};
object triplex_node {
  nominal_voltage 120;
  phases AS;
  name R1-12-47-3_load_3_tn_A_1;
};
object triplex_node {
  nominal_voltage 120;
  phases AS;
  name R1-12-47-3_load_20_tn_A_2;
};
object triplex_meter {
  bill_day 1;
  monthly_fee 25.00;
  bill_mode HOURLY;
  nominal_voltage 120;
  meter_power_consumption 1.333333+7.000000j;
  groupid Commercial_Meter;
  phases AS;
  name R1-12-47-3_load_20_tm_A_2;
  power_market Market_1;
  parent R1-12-47-3_load_20_tn_A_2;
};
object house {
  heating_setpoint stripmall_heating;
  cooling_setpoint 85;
  cooling_COP 3.23;
  over_sizing_factor 0.1;
  mass_temperature 71.49;
  air_temperature 71.49;
  cooling_system_type ELECTRIC;
  fan_type ONE_SPEED;
  auxiliary_system_type NONE;
  heating_system_type GAS;
  window_wall_ratio 0.050;
  airchange_per_hour 1.76;
  window_frame NONE;
  glazing_treatment LOW_S;
  glass_type GLASS;
  glazing_layers TWO;
  exterior_wall_fraction 0.40;
  Rdoors 3.0;
  Rfloor 40.00;
  Rroof 19.0;
  Rwall 18.3;
  exterior_ceiling_fraction 1.000;
  exterior_floor_fraction 0.800;
  interior_exterior_wall_ratio -0.1;
  interior_surface_heat_transfer_coeff 0.59;
  total_thermal_mass_per_floor_area 5.68;
  aspect_ratio 1.50;
  number_of_doors 1;
  design_internal_gains 34382;
  floor_area 2798;
  schedule_skew 0;
  groupid Commercial;
  name stripmallR1-12-47-3_load_20_A2;
  parent R1-12-47-3_load_20_tm_A_2;
};
object ZIPload {
  base_power stripmall_lights*2.42;
  impedance_pf 1.00;
  current_pf 1.00;
  power_pf 1.00;
  current_fraction 0.40;
  impedance_fraction 0.20;
  power_fraction 0.40;
  heatgain_fraction 1.0;
  schedule_skew 0;
  name lights_R1-12-47-3_load_20_A_2;
  parent stripmallR1-12-47-3_load_20_A2;
};
object transformer_configuration {
  shunt_impedance 339.610+346.401j;
  reactance 0.02000;
  resistance 0.00400;
  powerA_rating 25.0;
  power_rating 25.0;
  secondary_voltage 480 V;
  primary_voltage 12470.000 V;
  install_type POLETOP;
  connect_type WYE_WYE;
  name transformer_configuration_144;
};
object meter {
  nominal_voltage 480;
  phases AN;
  name R1-12-47-3_meter_12;
};
object transformer {
  phases AN;
  name R1-12-47-3_xfmr_13;
  groupid Distribution_Trans;
  configuration transformer_configuration_144;
  to R1-12-47-3_meter_12;
  from R1-12-47-3_node_29;
};
object transformer_configuration {
  powerA_rating 50 kVA;
  secondary_voltage 207.846;
  primary_voltage 480.000;
  shunt_impedance 100000+100000j;
  impedance 0.00033+0.0022j;
  install_type POLETOP;
  connect_type SINGLE_PHASE_CENTER_TAPPED;
  name CTTF_config_A_R1-12-47-3_load_21;
};
object transformer {
  groupid Distribution_Trans;
  phases AS;
  name R1-12-47-3_load_21_CTTF_A_1;
  configuration CTTF_config_A_R1-12-47-3_load_21;
  to R1-12-47-3_load_21_tn_A_1;
  from R1-12-47-3_load_21_strip_node;
};
object transformer {
  groupid Distribution_Trans;
  phases CS;
  name R1-12-47-3_load_20_CTTF_C_2;
  configuration CTTF_config_C_R1-12-47-3_load_20;
  to R1-12-47-3_load_20_tn_C_2;
  from R1-12-47-3_load_20_strip_node;
};
object line_spacing {
  distance_CN 69.80000000004 in;
  distance_BN 69.80000000004 in;
  distance_AN 69.80000000004 in;
  distance_AC 53.19999999996 in;
  distance_BC 53.19999999996 in;
  distance_AB 53.19999999996 in;
  name line_spacing_commABC;
};
object overhead_line_conductor {
  resistance 0.05230;
  geometric_mean_radius 0.02270 ft;
  rating.summer.continuous 443.0;
  name overhead_line_conductor_comm;
};
object line_configuration {
  name line_configuration_commABC;
  spacing line_spacing_commABC;
  conductor_N overhead_line_conductor_comm;
  conductor_C overhead_line_conductor_comm;
  conductor_B overhead_line_conductor_comm;
  conductor_A overhead_line_conductor_comm;
};
object node {
  nominal_voltage 480.00;
  phases ABCN;
  name R1-12-47-3_load_21;
  parent R1-12-47-3_meter_21;
};
object overhead_line {
  name overhead_line_19;
  length 50ft;
  phases ABCN;
  configuration line_configuration_commABC;
  to R1-12-47-3_load_21_strip_node;
  from R1-12-47-3_load_21;
};
object node {
  nominal_voltage 7200;
  voltage_C -3600+6235j;
  voltage_B -3600-6235j;
  voltage_A 7200+0.0j;
  phases ABCN;
  name R1-12-47-3_node_10;
};
object ZIPload {
  name ZIPload_11;
  power_fraction 0.400000;
  current_fraction 0.400000;
  impedance_fraction 0.200000;
  impedance_pf 1.000;
  current_pf 1.000;
  power_pf 1.000;
  heatgain_fraction 0.900;
  base_power unresponsive_loads*0.75;
  schedule_skew -1412;
  parent house7_R1-12-47-3_tm_1;
};
object meter {
  nominal_voltage 480;
  phases AN;
  name R1-12-47-3_meter_14;
};
object node {
  nominal_voltage 480.00;
  phases AN;
  name R1-12-47-3_load_14;
  parent R1-12-47-3_meter_14;
};
object triplex_meter {
  bill_day 1;
  monthly_fee 25.00;
  bill_mode HOURLY;
  nominal_voltage 120;
  meter_power_consumption 1.333333+7.000000j;
  groupid Commercial_Meter;
  phases AS;
  name R1-12-47-3_load_3_tm_A_1;
  power_market Market_1;
  parent R1-12-47-3_load_3_tn_A_1;
};
object house {
  heating_setpoint stripmall_heating;
  cooling_setpoint 85;
  cooling_COP 2.57;
  over_sizing_factor 0.1;
  mass_temperature 69.29;
  air_temperature 69.29;
  cooling_system_type ELECTRIC;
  fan_type ONE_SPEED;
  auxiliary_system_type NONE;
  heating_system_type GAS;
  window_wall_ratio 0.050;
  airchange_per_hour 1.76;
  window_frame NONE;
  glazing_treatment LOW_S;
  glass_type GLASS;
  glazing_layers TWO;
  exterior_wall_fraction 0.40;
  Rdoors 3.0;
  Rfloor 40.00;
  Rroof 19.0;
  Rwall 18.3;
  exterior_ceiling_fraction 1.000;
  exterior_floor_fraction 0.800;
  interior_exterior_wall_ratio -0.1;
  interior_surface_heat_transfer_coeff 0.59;
  total_thermal_mass_per_floor_area 2.85;
  aspect_ratio 1.50;
  number_of_doors 1;
  design_internal_gains 24166;
  floor_area 1967;
  schedule_skew 1800;
  groupid Commercial;
  name stripmallR1-12-47-3_load_3_A1;
  parent R1-12-47-3_load_3_tm_A_1;
};
object ZIPload {
  base_power stripmall_exterior*1.91;
  impedance_pf 1.00;
  current_pf 1.00;
  power_pf 1.00;
  current_fraction 0.40;
  impedance_fraction 0.20;
  power_fraction 0.40;
  heatgain_fraction 0.0;
  schedule_skew 1800;
  name ext_R1-12-47-3_load_3_A_1;
  parent stripmallR1-12-47-3_load_3_A1;
};
object node {
  nominal_voltage 7200;
  voltage_C -3600+6235j;
  voltage_A 7200+0.0j;
  phases ACN;
  name R1-12-47-3_node_11;
};
object triplex_node {
  nominal_voltage 120;
  phases AS;
  name R1-12-47-3_load_11_tn_A_3;
};
object triplex_meter {
  bill_day 1;
  monthly_fee 25.00;
  bill_mode HOURLY;
  nominal_voltage 120;
  meter_power_consumption 1.333333+7.000000j;
  groupid Commercial_Meter;
  phases AS;
  name R1-12-47-3_load_11_tm_A_3;
  power_market Market_1;
  parent R1-12-47-3_load_11_tn_A_3;
};
object house {
  heating_setpoint stripmall_heating;
  cooling_setpoint 85;
  cooling_COP 2.63;
  over_sizing_factor 0.1;
  mass_temperature 71.87;
  air_temperature 71.87;
  cooling_system_type ELECTRIC;
  fan_type ONE_SPEED;
  auxiliary_system_type NONE;
  heating_system_type GAS;
  window_wall_ratio 0.030;
  airchange_per_hour 1.76;
  window_frame NONE;
  glazing_treatment LOW_S;
  glass_type GLASS;
  glazing_layers TWO;
  exterior_wall_fraction 0.63;
  Rdoors 3.0;
  Rfloor 40.00;
  Rroof 19.0;
  Rwall 18.3;
  exterior_ceiling_fraction 1.000;
  exterior_floor_fraction 2.000;
  interior_exterior_wall_ratio -0.4;
  interior_surface_heat_transfer_coeff 0.59;
  total_thermal_mass_per_floor_area 2.43;
  aspect_ratio 3.00;
  number_of_doors 1;
  design_internal_gains 13663;
  floor_area 1112;
  schedule_skew -1800;
  groupid Commercial;
  name stripmallR1-12-47-3_load_11_A3;
  parent R1-12-47-3_load_11_tm_A_3;
};
object ZIPload {
  base_power stripmall_lights*1.21;
  impedance_pf 1.00;
  current_pf 1.00;
  power_pf 1.00;
  current_fraction 0.40;
  impedance_fraction 0.20;
  power_fraction 0.40;
  heatgain_fraction 1.0;
  schedule_skew -1800;
  name lights_R1-12-47-3_load_11_A_3;
  parent stripmallR1-12-47-3_load_11_A3;
};
object triplex_node {
  nominal_voltage 120;
  phases AS;
  name R1-12-47-3_load_18_tn_A_2;
};
object triplex_meter {
  bill_day 1;
  monthly_fee 25.00;
  bill_mode HOURLY;
  nominal_voltage 120;
  meter_power_consumption 1.333333+7.000000j;
  groupid Commercial_Meter;
  phases AS;
  name R1-12-47-3_load_18_tm_A_2;
  power_market Market_1;
  parent R1-12-47-3_load_18_tn_A_2;
};
object billdump {
  name billdump_23;
  meter_type TRIPLEX_METER;
  group Residential_Meter;
  filename R1_1247_3_t6_bill_res13.csv;
  runtime 2010-02-01 03:00:00;
};
object billdump {
  name billdump_24;
  meter_type TRIPLEX_METER;
  group Commercial_Meter;
  filename R1_1247_3_t6_bill_commSP13.csv;
  runtime 2010-02-01 03:00:00;
};
object player {
  file CPP_days_R1.player;
  name CPP_days_R1;
};
object player {
  name player0;
  property current_market.clearing_price;
  loop 10;
  file R1_1247_3_t0_TOU.player;
  parent Market_1;
};
object climate {
  interpolate QUADRATIC;
  tmyfile TN-Nashville.tmy2;
  name TN-Nashville;
};
object regulator_configuration {
  tap_pos_C 0;
  tap_pos_B 0;
  tap_pos_A 0;
  regulation 0.10;
  lower_taps 16;
  raise_taps 16;
  time_delay 30;
  connect_type WYE_WYE;
  band_width 120;
  band_center 7500.0;
  Control OUTPUT_VOLTAGE;
  name feeder_reg_cfg;
};
object overhead_line_conductor {
  resistance 0.56300;
  geometric_mean_radius 0.00814 ft;
  rating.summer.continuous 334.0;
  name overhead_line_conductor_3;
};
object line_configuration {
  name line_configuration_18;
  spacing line_spacing_10;
  conductor_N overhead_line_conductor_3;
  conductor_C overhead_line_conductor_3;
  conductor_B overhead_line_conductor_3;
  conductor_A overhead_line_conductor_3;
};
object overhead_line_conductor {
  resistance 2.40970;
  geometric_mean_radius 0.00700 ft;
  rating.summer.continuous 120.0;
  name overhead_line_conductor_4;
};
object line_configuration {
  name line_configuration_19;
  spacing line_spacing_11;
  conductor_N overhead_line_conductor_4;
  conductor_C overhead_line_conductor_4;
  conductor_A overhead_line_conductor_4;
};
object line_configuration {
  name line_configuration_21;
  spacing line_spacing_10;
  conductor_N overhead_line_conductor_4;
  conductor_C overhead_line_conductor_4;
  conductor_B overhead_line_conductor_4;
  conductor_A overhead_line_conductor_4;
};
object line_configuration {
  name line_configuration_23;
  spacing line_spacing_12;
  conductor_N overhead_line_conductor_4;
  conductor_C overhead_line_conductor_4;
};
object line_configuration {
  name line_configuration_25;
  spacing line_spacing_13;
  conductor_N overhead_line_conductor_6;
  conductor_A overhead_line_conductor_6;
};
object overhead_line_conductor {
  resistance 0.95300;
  geometric_mean_radius 0.01203 ft;
  rating.summer.continuous 230.0;
  name overhead_line_conductor_7;
};
object line_configuration {
  name line_configuration_26;
  spacing line_spacing_10;
  conductor_N overhead_line_conductor_7;
  conductor_C overhead_line_conductor_7;
  conductor_B overhead_line_conductor_7;
  conductor_A overhead_line_conductor_7;
};
object line_spacing {
  distance_CN 0.0 in;
  distance_BN 0.0 in;
  distance_BC 0.0 in;
  name line_spacing_14;
};
object underground_line_conductor {
  shield_resistance 0.00;
  shield_gmr 0.00;
  neutral_strands 16.0;
  neutral_diameter 0.0641;
  neutral_resistance 13.86528;
  neutral_gmr 0.0489686771417213 ft;
  conductor_resistance 0.88704;
  conductor_diameter 0.362;
  conductor_gmr 0.01142 ft;
  outer_diameter 1.27;
  rating.summer.continuous 142.0;
  name underground_line_conductor_8;
};
object line_configuration {
  name line_configuration_28;
  spacing line_spacing_14;
  conductor_N underground_line_conductor_8;
  conductor_C underground_line_conductor_8;
  conductor_B underground_line_conductor_8;
};
object line_spacing {
  distance_BN 0.0 in;
  name line_spacing_15;
};
object line_configuration {
  name line_configuration_29;
  spacing line_spacing_15;
  conductor_N underground_line_conductor_8;
  conductor_B underground_line_conductor_8;
};
object line_configuration {
  name line_configuration_30;
  spacing line_spacing_16;
  conductor_N overhead_line_conductor_5;
  conductor_C overhead_line_conductor_5;
  conductor_B overhead_line_conductor_5;
};
object line_configuration {
  name line_configuration_31;
  spacing line_spacing_13;
  conductor_N overhead_line_conductor_4;
  conductor_A overhead_line_conductor_4;
};
object line_configuration {
  name line_configuration_33;
  spacing line_spacing_9;
  conductor_N underground_line_conductor_8;
  conductor_C underground_line_conductor_8;
  conductor_B underground_line_conductor_8;
  conductor_A underground_line_conductor_8;
};
object transformer_configuration {
  shunt_impedance 391.760+390.395j;
  reactance 0.01000;
  resistance 0.00200;
  powerC_rating 50.0;
  power_rating 50.0;
  secondary_voltage 480 V;
  primary_voltage 12470.000 V;
  install_type PADMOUNT;
  connect_type WYE_WYE;
  name transformer_configuration_134;
};
object transformer_configuration {
  shunt_impedance 381.330+362.111j;
  reactance 0.01111;
  resistance 0.00222;
  powerC_rating 15.0;
  powerB_rating 15.0;
  powerA_rating 15.0;
  power_rating 45.0;
  secondary_voltage 480 V;
  primary_voltage 12470.000 V;
  install_type PADMOUNT;
  connect_type WYE_WYE;
  name transformer_configuration_135;
};
object transformer_configuration {
  shunt_impedance 443.910+486.502j;
  reactance 0.00667;
  resistance 0.00133;
  powerC_rating 75.0;
  powerB_rating 0.0;
  powerA_rating 0.0;
  power_rating 75.0;
  secondary_voltage 480 V;
  primary_voltage 12470.000 V;
  install_type POLETOP;
  connect_type WYE_WYE;
  name transformer_configuration_138;
};
object transformer_configuration {
  shunt_impedance 365.685+353.218j;
  reactance 0.01333;
  resistance 0.00267;
  powerA_rating 37.5;
  power_rating 37.5;
  secondary_voltage 480 V;
  primary_voltage 12470.000 V;
  install_type POLETOP;
  connect_type WYE_WYE;
  name transformer_configuration_139;
};
object transformer_configuration {
  shunt_impedance 443.910+436.216j;
  reactance 0.00667;
  resistance 0.00133;
  powerC_rating 25.0;
  powerB_rating 25.0;
  powerA_rating 25.0;
  power_rating 75.0;
  secondary_voltage 480 V;
  primary_voltage 12470.000 V;
  install_type POLETOP;
  connect_type WYE_WYE;
  name transformer_configuration_140;
};
object transformer_configuration {
  shunt_impedance 443.910+471.268j;
  reactance 0.00667;
  resistance 0.00133;
  powerB_rating 75.0;
  power_rating 75.0;
  secondary_voltage 480 V;
  primary_voltage 12470.000 V;
  install_type POLETOP;
  connect_type WYE_WYE;
  name transformer_configuration_141;
};
object transformer_configuration {
  shunt_impedance 496.060+425.773j;
  reactance 0.00500;
  resistance 0.00100;
  powerA_rating 100.0;
  power_rating 100.0;
  secondary_voltage 480 V;
  primary_voltage 12470.000 V;
  install_type POLETOP;
  connect_type WYE_WYE;
  name transformer_configuration_143;
};
object transformer_configuration {
  shunt_impedance 391.760+399.432j;
  reactance 0.01000;
  resistance 0.00200;
  powerB_rating 50.0;
  power_rating 50.0;
  secondary_voltage 480 V;
  primary_voltage 12470.000 V;
  install_type POLETOP;
  connect_type WYE_WYE;
  name transformer_configuration_145;
};
object transformer_configuration {
  shunt_impedance 652.510+642.648j;
  reactance 0.00286;
  resistance 0.00057;
  powerB_rating 175.0;
  power_rating 175.0;
  secondary_voltage 480 V;
  primary_voltage 12470.000 V;
  install_type POLETOP;
  connect_type WYE_WYE;
  name transformer_configuration_146;
};
object transformer_configuration {
  shunt_impedance 600.360+653.959j;
  reactance 0.00333;
  resistance 0.00067;
  powerC_rating 50.0;
  powerB_rating 50.0;
  powerA_rating 50.0;
  power_rating 150.0;
  secondary_voltage 480 V;
  primary_voltage 12470.000 V;
  install_type POLETOP;
  connect_type WYE_WYE;
  name transformer_configuration_147;
};
object transformer_configuration {
  shunt_impedance 522.135+503.119j;
  reactance 0.00444;
  resistance 0.00089;
  powerC_rating 37.5;
  powerB_rating 37.5;
  powerA_rating 37.5;
  power_rating 112.5;
  secondary_voltage 480 V;
  primary_voltage 12470.000 V;
  install_type POLETOP;
  connect_type WYE_WYE;
  name transformer_configuration_148;
};
object triplex_line_conductor {
  geometric_mean_radius 0.0158;
  resistance 0.48;
  name triplex_4/0 AA;
};
object triplex_line_configuration {
  diameter 0.522;
  insulation_thickness 0.08;
  name triplex_line_configuration_1;
  conductor_N triplex_4/0 AA;
  conductor_2 triplex_4/0 AA;
  conductor_1 triplex_4/0 AA;
};
object transformer_configuration {
  impedance 0.00033+0.0022j;
  power_rating 1.4 MVA;
  secondary_voltage 12470.000;
  primary_voltage 230000;
  install_type PADMOUNT;
  connect_type WYE_WYE;
  name trans_config_to_feeder;
};
...